NSC-703786
  SciTegic02011015433D

 29 31  0  0  0  0            999 V2000
   -2.9970   -2.6830   -1.2340 C   0  0
   -2.6090   -1.4410   -0.4870 C   0  0
   -3.5710   -0.6540    0.1970 C   0  0
   -3.1510    0.5040    0.8830 C   0  0
   -1.8000    0.8810    0.8920 C   0  0
   -0.8370    0.1080    0.2170 C   0  0
   -1.2540   -1.0520   -0.4710 C   0  0
    0.5970    0.5300    0.2420 C   0  0
    1.6410   -0.1730   -0.4050 N   0  0
    2.8420    0.4500   -0.2050 C   0  0
    2.6360    1.5680    0.5670 C   0  0
    1.1200    1.9630    1.0940 S   0  0
    3.7520    2.3770    0.9040 C   0  0
    5.0500    2.0340    0.4510 C   0  0
    5.2350    0.8770   -0.3440 C   0  0
    4.1200    0.0720   -0.6790 C   0  0
    6.4500    0.5480   -0.7750 F   0  0
   -4.9100   -0.9910    0.2130 N   0  0
   -3.4530   -3.4080   -0.5580 H   0  0
   -2.1390   -3.1680   -1.7040 H   0  0
   -3.7140   -2.4480   -2.0220 H   0  0
   -3.8630    1.1230    1.4130 H   0  0
   -1.5190    1.7760    1.4290 H   0  0
   -0.5330   -1.6610   -0.9970 H   0  0
    3.6120    3.2600    1.5110 H   0  0
    5.8930    2.6560    0.7120 H   0  0
    4.2450   -0.8150   -1.2850 H   0  0
   -5.2580   -1.8020   -0.2580 H   0  0
   -5.5830   -0.4320    0.6990 H   0  0
  3 18  1  0
 15 17  1  0
 16 10  2  0
 15 16  1  0
 14 15  2  0
 13 14  1  0
 11 13  2  0
 12  8  1  0
 11 12  1  0
 10 11  1  0
  9 10  1  0
  8  9  2  0
  6  8  1  0
  7  2  2  0
  6  7  1  0
  5  6  2  0
  4  5  1  0
  3  4  2  0
  2  3  1  0
  1  2  1  0
  1 19  1  0
  1 20  1  0
  1 21  1  0
  4 22  1  0
  5 23  1  0
  7 24  1  0
 13 25  1  0
 14 26  1  0
 16 27  1  0
 18 28  1  0
 18 29  1  0
M  END
> <Name>
NSC-703786

> <AbsoluteEnergy>
61.1755

> <ConfNumber>
1

> <RelativeEnergy>
0

> <MolNumber>
1

$$$$
NSC-686288
  SciTegic02011015433D

 34 36  0  0  0  0            999 V2000
   -5.0010    0.1530    1.3630 C   0  0
   -3.7630    0.6920    0.7470 C   0  0
   -3.7790    1.9750    0.1400 C   0  0
   -2.6040    2.5320   -0.4570 C   0  0
   -1.3980    1.7520   -0.4310 C   0  0
   -0.1040    2.2310   -1.0230 C   0  0
    0.1300    3.2760   -1.5850 O   0  0
    1.0440    1.3070   -0.9080 C   0  0
    0.9290    0.0990   -0.3030 C   0  0
   -0.2640   -0.2780    0.2030 O   0  0
   -1.3910    0.4660    0.1730 C   0  0
   -2.5640   -0.0600    0.7560 C   0  0
   -2.5260   -1.2700    1.3140 F   0  0
    2.1030   -0.8510   -0.1770 C   0  0
    1.8620   -2.1790    0.2310 C   0  0
    2.9140   -3.1030    0.3510 C   0  0
    4.2400   -2.7080    0.0630 C   0  0
    4.4870   -1.3790   -0.3360 C   0  0
    3.4310   -0.4590   -0.4520 C   0  0
    5.2900   -3.5980    0.1640 N   0  0
    2.6280   -4.3470    0.7380 F   0  0
   -2.6760    3.7660   -1.0190 N   0  0
   -4.9310    2.6540    0.1400 F   0  0
   -5.7270   -0.1000    0.5890 H   0  0
   -5.4540    0.8910    2.0270 H   0  0
   -4.8220   -0.7430    1.9580 H   0  0
    1.9760    1.6430   -1.3360 H   0  0
    0.8560   -2.5030    0.4570 H   0  0
    5.4910   -1.0460   -0.5580 H   0  0
    3.6750    0.5470   -0.7550 H   0  0
    6.2310   -3.3210   -0.0370 H   0  0
    5.1500   -4.5500    0.4410 H   0  0
   -1.9010    4.2230   -1.4510 H   0  0
   -3.5310    4.2870   -1.0240 H   0  0
  3 23  1  0
  4 22  1  0
 16 21  1  0
 17 20  1  0
 19 14  2  0
 18 19  1  0
 17 18  2  0
 16 17  1  0
 15 16  2  0
 14 15  1  0
  9 14  1  0
 12 13  1  0
 12  2  2  0
 11 12  1  0
 11  5  2  0
 10 11  1  0
  9 10  1  0
  8  9  2  0
  6  8  1  0
  6  7  2  0
  5  6  1  0
  4  5  1  0
  3  4  2  0
  2  3  1  0
  1  2  1  0
  1 24  1  0
  1 25  1  0
  1 26  1  0
  8 27  1  0
 15 28  1  0
 18 29  1  0
 19 30  1  0
 20 31  1  0
 20 32  1  0
 22 33  1  0
 22 34  1  0
M  END
> <Name>
NSC-686288

> <AbsoluteEnergy>
38.7599

> <ConfNumber>
1

> <RelativeEnergy>
0

> <MolNumber>
2

$$$$
