NSC-703786_0_3
  -OEChem-09021315243D

 29 31  0     0  0  0  0  0  0999 V2000
   -3.0720   -2.4470   -1.5250 C   0  0  0  0  0  0  0  0  0  0  0  0
   -2.6380   -1.3450   -0.6050 C   0  0  0  0  0  0  0  0  0  0  0  0
   -3.5500   -0.7140    0.2810 C   0  0  0  0  0  0  0  0  0  0  0  0
   -3.0900    0.3200    1.1220 C   0  0  0  0  0  0  0  0  0  0  0  0
   -1.7460    0.7220    1.0940 C   0  0  0  0  0  0  0  0  0  0  0  0
   -0.8330    0.0980    0.2240 C   0  0  0  0  0  0  0  0  0  0  0  0
   -1.2900   -0.9320   -0.6240 C   0  0  0  0  0  0  0  0  0  0  0  0
    0.5930    0.5390    0.2190 C   0  0  0  0  0  0  0  0  0  0  0  0
    1.6620   -0.2540   -0.2630 N   0  0  0  0  0  0  0  0  0  0  0  0
    2.8520    0.4080   -0.1290 C   0  0  0  0  0  0  0  0  0  0  0  0
    2.6120    1.6420    0.4290 C   0  0  0  0  0  0  0  0  0  0  0  0
    1.0750    2.1040    0.8260 S   0  0  0  0  0  0  0  0  0  0  0  0
    3.7110    2.5110    0.6570 C   0  0  0  0  0  0  0  0  0  0  0  0
    5.0270    2.1080    0.3180 C   0  0  0  0  0  0  0  0  0  0  0  0
    5.2470    0.8310   -0.2530 C   0  0  0  0  0  0  0  0  0  0  0  0
    4.1500   -0.0330   -0.4800 C   0  0  0  0  0  0  0  0  0  0  0  0
    6.4800    0.4450   -0.5750 F   0  0  0  0  0  0  0  0  0  0  0  0
   -4.8790   -1.0840    0.3430 N   0  0  0  0  0  0  0  0  0  0  0  0
   -2.2590   -2.8040   -2.1580 H   0  0  0  0  0  0  0  0  0  0  0  0
   -3.4410   -3.2980   -0.9500 H   0  0  0  0  0  0  0  0  0  0  0  0
   -3.8710   -2.1030   -2.1830 H   0  0  0  0  0  0  0  0  0  0  0  0
   -3.7640    0.8200    1.8030 H   0  0  0  0  0  0  0  0  0  0  0  0
   -1.4280    1.5180    1.7540 H   0  0  0  0  0  0  0  0  0  0  0  0
   -0.6040   -1.4180   -1.3040 H   0  0  0  0  0  0  0  0  0  0  0  0
    3.5460    3.4860    1.0920 H   0  0  0  0  0  0  0  0  0  0  0  0
    5.8570    2.7770    0.4970 H   0  0  0  0  0  0  0  0  0  0  0  0
    4.3020   -1.0120   -0.9140 H   0  0  0  0  0  0  0  0  0  0  0  0
   -5.5150   -0.6370    0.9740 H   0  0  0  0  0  0  0  0  0  0  0  0
   -5.2560   -1.8080   -0.2360 H   0  0  0  0  0  0  0  0  0  0  0  0
  3 18  1  0  0  0  0
 15 17  1  0  0  0  0
 10 16  2  0  0  0  0
 15 16  1  0  0  0  0
 14 15  2  0  0  0  0
 13 14  1  0  0  0  0
 11 13  2  0  0  0  0
  8 12  1  0  0  0  0
 11 12  1  0  0  0  0
 10 11  1  0  0  0  0
  9 10  1  0  0  0  0
  8  9  2  0  0  0  0
  6  8  1  0  0  0  0
  2  7  2  0  0  0  0
  6  7  1  0  0  0  0
  5  6  2  0  0  0  0
  4  5  1  0  0  0  0
  3  4  2  0  0  0  0
  2  3  1  0  0  0  0
  1  2  1  0  0  0  0
  1 19  1  0  0  0  0
  1 20  1  0  0  0  0
  1 21  1  0  0  0  0
  4 22  1  0  0  0  0
  5 23  1  0  0  0  0
  7 24  1  0  0  0  0
 13 25  1  0  0  0  0
 14 26  1  0  0  0  0
 16 27  1  0  0  0  0
 18 28  1  0  0  0  0
 18 29  1  0  0  0  0
M  END
> <Name>
NSC-703786

> <AbsoluteEnergy>
61.2621

> <ConfNumber>
4

> <RelativeEnergy>
0.0865959

> <MolNumber>
1

$$$$
2qgc_MR4_1_A_128__C____1
  -OEChem-09021315453D
Created by: Ligand Depot
 18 20  0     0  0  0  0  0  0999 V2000
   -4.0967    1.6649    1.1707 C   0  0  0  0  0  0  0  0  0  0  0  0
   -3.0508    0.6792    0.6264 C   0  0  0  0  0  0  0  0  0  0  0  0
   -1.6972    0.9710    0.6110 C   0  0  0  0  0  0  0  0  0  0  0  0
   -3.4473   -0.5670    0.1286 C   0  0  0  0  0  0  0  0  0  0  0  0
   -4.7658   -0.8718    0.1390 O   0  0  0  0  0  0  0  0  0  0  0  0
   -2.5221   -1.4916   -0.3699 C   0  0  0  0  0  0  0  0  0  0  0  0
   -2.9561   -2.8468   -0.8994 C   0  0  0  0  0  0  0  0  0  0  0  0
   -1.1858   -1.1406   -0.3671 C   0  0  0  0  0  0  0  0  0  0  0  0
   -0.7579    0.0882    0.0915 C   0  0  0  0  0  0  0  0  0  0  0  0
    0.5834    0.4134    0.1127 C   0  0  0  0  0  0  0  0  0  0  0  0
    1.0629    1.4096    0.9091 O   0  0  0  0  0  0  0  0  0  0  0  0
    2.3997    1.4494    0.6960 C   0  0  0  0  0  0  0  0  0  0  0  0
    3.4017    2.2644    1.2293 C   0  0  0  0  0  0  0  0  0  0  0  0
    4.7173    2.0644    0.8213 C   0  0  0  0  0  0  0  0  0  0  0  0
    4.9944    1.0765   -0.1024 C   0  0  0  0  0  0  0  0  0  0  0  0
    3.9883    0.2966   -0.6600 C   0  0  0  0  0  0  0  0  0  0  0  0
    2.6854    0.4599   -0.2489 C   0  0  0  0  0  0  0  0  0  0  0  0
    1.5413   -0.1624   -0.5935 N   0  0  0  0  0  0  0  0  0  0  0  0
  1  2  1  0  0  0  0
  2  3  2  0  0  0  0
  2  4  1  0  0  0  0
  3  9  1  0  0  0  0
  4  6  2  0  0  0  0
  4  5  1  0  0  0  0
  6  8  1  0  0  0  0
  6  7  1  0  0  0  0
  8  9  2  0  0  0  0
  9 10  1  0  0  0  0
 10 18  2  0  0  0  0
 10 11  1  0  0  0  0
 11 12  1  0  0  0  0
 12 13  2  0  0  0  0
 12 17  1  0  0  0  0
 13 14  1  0  0  0  0
 14 15  2  0  0  0  0
 15 16  1  0  0  0  0
 16 17  2  0  0  0  0
 17 18  1  0  0  0  0
M  END
> <ShapeQuery>
NSC-703786_0_2

> <TanimotoCombo>
1.862 

> <ShapeTanimoto>
0.929 

> <ColorTanimoto>
0.933 

> <RefTversky>
0.985 

> <RefColorTversky>
0.965 

> <RefTverskyCombo>
1.950 

> <FitTversky>
0.943 

> <FitColorTversky>
0.965 

> <FitTverskyCombo>
1.908 

> <ScaledColor>
0.965 

> <ComboScore>
1.894 

> <ColorScore>
-5.791

> <SubTan>
0.000 

> <Overlap>
795.142

> <Rank>
1                   

$$$$
1afs_TES_1_A_325__D____9
  -OEChem-09021315453D
Created by: Ligand Depot
 21 24  0     1  0  0  0  0  0999 V2000
   -2.1144    0.6627    0.6641 C   0  0  0  0  0  0  0  0  0  0  0  0
   -3.3390   -0.2505    0.9091 C   0  0  0  0  0  0  0  0  0  0  0  0
   -3.4919   -1.3097   -0.1902 C   0  0  0  0  0  0  0  0  0  0  0  0
   -4.5810   -1.8154   -0.4839 O   0  0  0  0  0  0  0  0  0  0  0  0
   -2.2819   -1.7460   -0.9221 C   0  0  0  0  0  0  0  0  0  0  0  0
   -1.0703   -1.2048   -0.6550 C   0  0  0  0  0  0  0  0  0  0  0  0
    0.0903   -1.7169   -1.4698 C   0  0  0  0  0  0  0  0  0  0  0  0
    1.5185   -1.5465   -0.7581 C   0  0  0  0  0  0  0  0  0  0  0  0
    1.6570   -0.3070    0.1297 C   0  0  2  0  0  0  0  0  0  0  0  0
    0.4374    0.6206    0.1342 C   0  0  1  0  0  0  0  0  0  0  0  0
   -0.8421   -0.1684    0.4460 C   0  0  1  0  0  0  0  0  0  0  0  0
    0.7144    1.7969    1.0887 C   0  0  0  0  0  0  0  0  0  0  0  0
    1.9528    2.6005    0.6564 C   0  0  0  0  0  0  0  0  0  0  0  0
    3.1501    1.6550    0.6215 C   0  0  1  0  0  0  0  0  0  0  0  0
    2.8455    0.5237   -0.3403 C   0  0  1  0  0  0  0  0  0  0  0  0
    4.1752   -0.1967   -0.5697 C   0  0  0  0  0  0  0  0  0  0  0  0
    5.2440    0.8058   -0.1199 C   0  0  0  0  0  0  0  0  0  0  0  0
    4.4630    2.1443    0.0294 C   0  0  2  0  0  0  0  0  0  0  0  0
    5.1295    3.0341    0.9185 O   0  0  0  0  0  0  0  0  0  0  0  0
    3.4075    1.1025    2.0321 C   0  0  0  0  0  0  0  0  0  0  0  0
   -0.5517   -0.9780    1.7165 C   0  0  0  0  0  0  0  0  0  0  0  0
  1  2  1  0  0  0  0
  1 11  1  0  0  0  0
  2  3  1  0  0  0  0
  3  4  2  0  0  0  0
  3  5  1  0  0  0  0
  5  6  2  0  0  0  0
  6  7  1  0  0  0  0
  6 11  1  0  0  0  0
  7  8  1  0  0  0  0
  8  9  1  0  0  0  0
  9 10  1  0  0  0  0
  9 15  1  0  0  0  0
 10 11  1  0  0  0  0
 10 12  1  0  0  0  0
 11 21  1  0  0  0  0
 12 13  1  0  0  0  0
 13 14  1  0  0  0  0
 14 15  1  0  0  0  0
 14 18  1  0  0  0  0
 14 20  1  0  0  0  0
 15 16  1  0  0  0  0
 16 17  1  0  0  0  0
 17 18  1  0  0  0  0
 18 19  1  0  0  0  0
M  END
> <ShapeQuery>
NSC-703786_0_1

> <TanimotoCombo>
1.220 

> <ShapeTanimoto>
0.838 

> <ColorTanimoto>
0.382 

> <RefTversky>
0.979 

> <RefColorTversky>
0.594 

> <RefTverskyCombo>
1.573 

> <FitTversky>
0.854 

> <FitColorTversky>
0.517 

> <FitTverskyCombo>
1.371 

> <ScaledColor>
0.599 

> <ComboScore>
1.437 

> <ColorScore>
-3.595

> <SubTan>
0.000 

> <Overlap>
795.149

> <Rank>
214                 

$$$$
1p57_CR4_1_B_346__C___
  -OEChem-09021315453D
Created by: Ligand Depot
 31 33  0     0  0  0  0  0  0999 V2000
    5.0199    1.0688   -0.2926 C   0  0  0  0  0  0  0  0  0  0  0  0
    4.7307    2.0677    0.7055 C   0  0  0  0  0  0  0  0  0  0  0  0
    3.4339    2.2696    1.2195 C   0  0  0  0  0  0  0  0  0  0  0  0
    2.4683    1.4551    0.7071 C   0  0  0  0  0  0  0  0  0  0  0  0
    2.6967    0.5025   -0.2263 C   0  0  0  0  0  0  0  0  0  0  0  0
    3.9462    0.2711   -0.7549 C   0  0  0  0  0  0  0  0  0  0  0  0
    6.3217    0.8883   -0.7914 C   0  0  0  0  0  0  0  0  0  0  0  0
    6.6631   -0.1982   -1.4117 N   0  0  0  0  0  0  0  0  0  0  0  0
    7.2293    1.8012   -0.6493 N   0  3  0  0  0  0  0  0  0  0  0  0
    1.2153    1.4060    0.9727 N   0  0  0  0  0  0  0  0  0  0  0  0
    1.6083   -0.1624   -0.5674 N   0  0  0  0  0  0  0  0  0  0  0  0
    0.7396    0.4536    0.2135 C   0  0  0  0  0  0  0  0  0  0  0  0
   -0.6204    0.1139    0.2029 C   0  0  0  0  0  0  0  0  0  0  0  0
   -1.1320   -1.0381   -0.4305 C   0  0  0  0  0  0  0  0  0  0  0  0
   -2.4891   -1.3054   -0.4484 C   0  0  0  0  0  0  0  0  0  0  0  0
   -3.3804   -0.4261    0.1703 C   0  0  0  0  0  0  0  0  0  0  0  0
   -2.9005    0.7171    0.8068 C   0  0  0  0  0  0  0  0  0  0  0  0
   -1.5342    0.9777    0.8218 C   0  0  0  0  0  0  0  0  0  0  0  0
   -1.0277    2.0976    1.4625 O   0  5  0  0  0  0  0  0  0  0  0  0
    5.5266    2.6911    1.0813 H   0  0  0  0  0  0  0  0  0  0  0  0
    3.2068    3.0117    1.9668 H   0  0  0  0  0  0  0  0  0  0  0  0
    4.1000   -0.4921   -1.5039 H   0  0  0  0  0  0  0  0  0  0  0  0
    5.9935   -0.9275   -1.5420 H   0  0  0  0  0  0  0  0  0  0  0  0
    7.6048   -0.3215   -1.7196 H   0  0  0  0  0  0  0  0  0  0  0  0
    7.0139    2.6359   -0.1556 H   0  0  0  0  0  0  0  0  0  0  0  0
    8.1505    1.6571   -1.0068 H   0  0  0  0  0  0  0  0  0  0  0  0
    0.7293    1.9717    1.5980 H   0  0  0  0  0  0  0  0  0  0  0  0
   -0.4601   -1.7315   -0.9131 H   0  0  0  0  0  0  0  0  0  0  0  0
   -2.8553   -2.1930   -0.9427 H   0  0  0  0  0  0  0  0  0  0  0  0
   -4.4412   -0.6298    0.1567 H   0  0  0  0  0  0  0  0  0  0  0  0
   -3.5847    1.3976    1.2853 H   0  0  0  0  0  0  0  0  0  0  0  0
  1  2  2  0  0  0  0
  1  6  1  0  0  0  0
  1  7  1  0  0  0  0
  2  3  1  0  0  0  0
  2 20  1  0  0  0  0
  3  4  2  0  0  0  0
  3 21  1  0  0  0  0
  4  5  1  0  0  0  0
  4 10  1  0  0  0  0
  5  6  2  0  0  0  0
  5 11  1  0  0  0  0
  6 22  1  0  0  0  0
  7  8  1  0  0  0  0
  7  9  2  0  0  0  0
  8 23  1  0  0  0  0
  8 24  1  0  0  0  0
  9 25  1  0  0  0  0
  9 26  1  0  0  0  0
 10 12  1  0  0  0  0
 10 27  1  0  0  0  0
 11 12  2  0  0  0  0
 12 13  1  0  0  0  0
 13 14  2  0  0  0  0
 13 18  1  0  0  0  0
 14 15  1  0  0  0  0
 14 28  1  0  0  0  0
 15 16  2  0  0  0  0
 15 29  1  0  0  0  0
 16 17  1  0  0  0  0
 16 30  1  0  0  0  0
 17 18  2  0  0  0  0
 17 31  1  0  0  0  0
 18 19  1  0  0  0  0
M  CHG  2   9   1  19  -1
M  END
> <ShapeQuery>
NSC-703786_0_2

> <TanimotoCombo>
1.182 

> <ShapeTanimoto>
0.864 

> <ColorTanimoto>
0.319 

> <RefTversky>
0.982 

> <RefColorTversky>
0.624 

> <RefTverskyCombo>
1.606 

> <FitTversky>
0.878 

> <FitColorTversky>
0.395 

> <FitTverskyCombo>
1.272 

> <ScaledColor>
0.645 

> <ComboScore>
1.508 

> <ColorScore>
-3.867

> <SubTan>
0.000 

> <Overlap>
796.178

> <Rank>
289                 

$$$$
3c1t_MYC_1_C_341__L____19
  -OEChem-09021315453D
Created by: Ligand Depot
 23 25  0     0  0  0  0  0  0999 V2000
    5.5260    1.0771   -0.2364 C   0  0  0  0  0  0  0  0  0  0  0  0
    4.6021    1.8543    0.4498 C   0  0  0  0  0  0  0  0  0  0  0  0
    3.1988    1.4377    0.4181 C   0  0  0  0  0  0  0  0  0  0  0  0
    2.8279    0.2465   -0.3400 C   0  0  0  0  0  0  0  0  0  0  0  0
    3.7978   -0.4657   -1.0049 C   0  0  0  0  0  0  0  0  0  0  0  0
    5.1219   -0.0456   -0.9610 C   0  0  0  0  0  0  0  0  0  0  0  0
    2.1481    2.1912    1.1233 C   0  0  0  0  0  0  0  0  0  0  0  0
    0.7828    1.7084    1.0344 C   0  0  0  0  0  0  0  0  0  0  0  0
    0.4896    0.6208    0.3073 C   0  0  0  0  0  0  0  0  0  0  0  0
   -0.8889    0.0308    0.1460 C   0  0  0  0  0  0  0  0  0  0  0  0
   -2.0389    0.6117    0.7017 C   0  0  0  0  0  0  0  0  0  0  0  0
   -3.2902    0.0114    0.5361 C   0  0  0  0  0  0  0  0  0  0  0  0
   -3.4042   -1.2421   -0.2260 C   0  0  0  0  0  0  0  0  0  0  0  0
   -2.1677   -1.8183   -0.8099 C   0  0  0  0  0  0  0  0  0  0  0  0
   -0.9615   -1.1560   -0.6106 C   0  0  0  0  0  0  0  0  0  0  0  0
    1.5281   -0.1269   -0.3836 O   0  0  0  0  0  0  0  0  0  0  0  0
    2.4370    3.1805    1.7788 O   0  0  0  0  0  0  0  0  0  0  0  0
   -2.2363   -2.9506   -1.5072 O   0  0  0  0  0  0  0  0  0  0  0  0
   -4.5924   -1.8202   -0.3928 O   0  0  0  0  0  0  0  0  0  0  0  0
   -4.4046    0.5284    1.0525 O   0  0  0  0  0  0  0  0  0  0  0  0
   -0.1373    2.4145    1.6818 O   0  0  0  0  0  0  0  0  0  0  0  0
    6.0233   -0.7723   -1.6167 O   0  0  0  0  0  0  0  0  0  0  0  0
    4.9465    2.9429    1.1385 O   0  0  0  0  0  0  0  0  0  0  0  0
  1  2  2  0  0  0  0
  1  6  1  0  0  0  0
  2  3  1  0  0  0  0
  2 23  1  0  0  0  0
  3  4  2  0  0  0  0
  3  7  1  0  0  0  0
  4  5  1  0  0  0  0
  4 16  1  0  0  0  0
  5  6  2  0  0  0  0
  6 22  1  0  0  0  0
  7  8  1  0  0  0  0
  7 17  2  0  0  0  0
  8  9  2  0  0  0  0
  8 21  1  0  0  0  0
  9 10  1  0  0  0  0
  9 16  1  0  0  0  0
 10 11  2  0  0  0  0
 10 15  1  0  0  0  0
 11 12  1  0  0  0  0
 12 13  2  0  0  0  0
 12 20  1  0  0  0  0
 13 14  1  0  0  0  0
 13 19  1  0  0  0  0
 14 15  2  0  0  0  0
 14 18  1  0  0  0  0
M  END
> <ShapeQuery>
NSC-703786_0_1

> <TanimotoCombo>
1.148 

> <ShapeTanimoto>
0.851 

> <ColorTanimoto>
0.297 

> <RefTversky>
1.052 

> <RefColorTversky>
0.805 

> <RefTverskyCombo>
1.857 

> <FitTversky>
0.816 

> <FitColorTversky>
0.321 

> <FitTverskyCombo>
1.137 

> <ScaledColor>
0.879 

> <ComboScore>
1.730 

> <ColorScore>
-5.272

> <SubTan>
0.000 

> <Overlap>
861.750

> <Rank>
396                 

$$$$